<?xml version="1.0" encoding="utf-8"?>
<!DOCTYPE population SYSTEM "http://www.matsim.org/files/dtd/population_v6.dtd">

<population>
    {% for person in population -%}
    <person id="{{person.id}}">
        {% if person.attributes -%}
        <attributes>
            {% for attribute in person.attributes -%}        
            <attribute name="{{attribute.name}}" class="{{attribute.type}}">{{attribute.value}}</attribute>
            {%- endfor %}
        </attributes>
        {%- endif %}
        {% if person.plan -%}
        <plan selected="yes">
            {%- for activity in person.plan -%}
            {% if activity.mode %}
            <leg mode="{{activity.mode}}"></leg>
            {%- endif %}
            <activity {%- for k in ["type", "x", "y", "end_time"] %}{% if k in activity %} {{k}}="{{activity[k]}}"{% endif %}{%- endfor -%}></activity>
            {%- endfor %}
        </plan>
        {%- endif %}
    </person>
    {%- endfor %}
</population>